New Load.CP_1  phases=1 kV=0.23 kW=0  pf=1 bus1=162.1 
New Load.CP_2  phases=1 kV=0.23 kW=0  pf=1 bus1=3164.2 
New Load.CP_3  phases=1 kV=0.23 kW=0  pf=1 bus1=2691.3 
